19
	Energy:     -89.9417037
O          5.18925        4.71074        5.90844
H          5.57483        4.05431        6.52339
H          5.87284        5.40927        5.93379
O          3.96095        3.81973        3.73753
H          4.40026        4.48669        3.13091
H          4.01190        4.23348        4.64978
H          2.98102        3.76595        3.51609
O          2.46814        5.14128        5.56454
H          3.04656        5.37397        6.31845
H          1.59267        5.40978        5.90361
O          1.53607        3.32014        3.12539
H          1.19797        2.42505        3.34090
H          0.74207        3.70536        2.70020
O          5.44261        1.06636        2.70923
H          5.64201        0.74023        1.81317
H          5.63198        0.29265        3.26131
O          5.30665        5.56095        2.45067
H          6.08669        5.30642        1.91087
H          5.36170        6.53707        2.37231
